Version 4
SHEET 1 880 680
WIRE -560 -304 -560 -320
WIRE -432 -304 -432 -320
WIRE -432 -192 -432 -224
WIRE -656 -144 -688 -144
WIRE -560 -144 -560 -224
WIRE -560 -144 -592 -144
WIRE -496 -144 -560 -144
WIRE -800 -80 -800 -112
WIRE -688 -80 -688 -144
WIRE -560 -80 -560 -144
WIRE -432 -64 -432 -96
WIRE -688 16 -688 0
WIRE -560 16 -560 0
WIRE -800 32 -800 0
WIRE -432 32 -432 16
FLAG -800 32 0
FLAG -800 -112 Vdd
FLAG -432 32 0
FLAG -432 -320 Vdd
FLAG -560 -320 Vdd
FLAG -560 16 0
FLAG -688 16 0
SYMBOL voltage -800 -96 R0
WINDOW 123 0 0 Left 2
WINDOW 39 0 0 Left 2
SYMATTR InstName V1
SYMATTR Value 20
SYMBOL npn -496 -192 R0
SYMATTR InstName Q1
SYMATTR Value BC847A
SYMBOL res -448 -320 R0
SYMATTR InstName R1
SYMATTR Value 4.7k
SYMBOL res -448 -80 R0
SYMATTR InstName R2
SYMATTR Value 4.7k
SYMBOL res -576 -320 R0
SYMATTR InstName R3
SYMATTR Value 150k
SYMBOL res -576 -96 R0
SYMATTR InstName R4
SYMATTR Value 56k
SYMBOL cap -592 -160 R90
WINDOW 0 0 32 VBottom 2
WINDOW 3 32 32 VTop 2
SYMATTR InstName C1
SYMATTR Value 0.1µ
SYMBOL voltage -688 -96 R0
WINDOW 39 0 0 Left 2
WINDOW 3 24 72 Invisible 2
SYMATTR Value2 AC 0.8
SYMATTR InstName V2
SYMATTR Value SINE(0 0.8 1000)
TEXT -850 -320 Left 2 !.ac oct 100 20 22000
TEXT -856 -288 Left 2 !;tran 0 5m 0 100n
